Bootstrap: docker
From: continuumio/miniconda3:latest


%files
    ./ /Project


%environment
    export SUMO_HOME=/usr/bin  # Not perfect, will go on the internet to get some missing files.

%post
    echo "Starting container setup."

    # Grab some extra sumo dependency files.
    cd /usr/bin
    mkdir data
    cd data
    # Putting data files in bin. It's weird, but trying to save some time...
    wget --recursive --no-parent https://sumo.dlr.de/xsd/
    mv /usr/bin/data/sumo.dlr.de/xsd /usr/bin/data/xsd
    rm -r /usr/bin/data/sumo.dlr.de
    cd /

    # Fixing conda weirdness
    conda init
    . /root/.bashrc
    conda activate base

    # Basic dependencies, SUMO installation
    apt-get update
    apt-get -y install software-properties-common
    apt-get -y install python3-launchpadlib
    apt-get update
    add-apt-repository ppa:sumo/stable
    apt-get update
    apt-get -y install sumo sumo-tools  # Sumo

    # Flow environment setup
    cd /Project
    conda env create -f environment_repaired.yml  # Flow environment setup

    conda activate flow
    # pip install docutils==0.20
    python setup.py develop
    pip install stable-baselines
    pip install protobuf==3.20.*

    # the hbaselines dependency
    cd /
    mkdir /hbaselines  # Install hbaselines
    cd /hbaselines
    git clone https://github.com/AboudyKreidieh/h-baselines.git
    cd h-baselines
    pip install -e .

    echo "Container setup done."


%runscript
    # Set up default command you wish to run here
    conda init
    . /root/.bashrc
    conda activate flow
    cd /Project/flow
    python train.py bottleneck0_benchmark

%help
    Setting up a container for RL 525, Project 4 (Group 8). jlim@wpi.edu.